0:0
     RDKit          3D

 40 41  0  0  1  0  0  0  0  0999 V2000
   -1.4724   -4.0672   -1.7681 C   0  0  0  0  0  0  0  0  0  0  0  0
   -2.5778   -3.7558   -0.7802 C   0  0  0  0  0  0  0  0  0  0  0  0
   -2.8168   -2.5674   -0.0739 C   0  0  0  0  0  0  0  0  0  0  0  0
   -4.2514   -2.7829    0.8994 S   0  0  0  0  0  0  0  0  0  0  0  0
   -4.3769   -4.3948    0.2903 C   0  0  0  0  0  0  0  0  0  0  0  0
   -5.4325   -5.1704    0.7492 N   0  0  0  0  0  0  0  0  0  0  0  0
   -5.7137   -6.4409    0.3873 C   0  0  0  0  0  0  0  0  0  0  0  0
   -5.0664   -7.1113   -0.4178 O   0  0  0  0  0  0  0  0  0  0  0  0
   -6.9396   -7.0630    1.0492 C   0  0  0  0  0  0  0  0  0  0  0  0
   -3.4381   -4.7340   -0.5625 N   0  0  0  0  0  0  0  0  0  0  0  0
   -2.0655   -1.2798   -0.0278 C   0  0  0  0  0  0  0  0  0  0  0  0
   -2.7388   -0.0547   -0.0190 C   0  0  0  0  0  0  0  0  0  0  0  0
   -2.0256    1.1417    0.0155 C   0  0  0  0  0  0  0  0  0  0  0  0
   -0.6306    1.1339    0.0436 C   0  0  0  0  0  0  0  0  0  0  0  0
    0.0588   -0.0906    0.0396 C   0  0  0  0  0  0  0  0  0  0  0  0
   -0.6676   -1.2866    0.0018 C   0  0  0  0  0  0  0  0  0  0  0  0
    1.8565   -0.1642    0.0811 S   0  0  0  0  0  0  0  0  0  0  0  0
    2.2427   -1.5727    0.2272 O   0  0  0  0  0  0  0  0  0  0  0  0
    2.3377    0.6184   -1.0625 O   0  0  0  0  0  0  0  0  0  0  0  0
    2.3244    0.6718    1.5577 N   0  0  0  0  0  0  0  0  0  0  0  0
    2.0003    0.0811    2.8710 C   0  0  0  0  0  0  0  0  0  0  0  0
    2.1231    1.0981    4.0167 C   0  0  0  0  0  0  0  0  0  0  0  0
    3.4600    1.5268    4.1782 O   0  0  0  0  0  0  0  0  0  0  0  0
    0.1916    2.6561    0.0831 Cl  0  0  0  0  0  0  0  0  0  0  0  0
   -0.9403   -3.1728   -2.0914 H   0  0  0  0  0  0  0  0  0  0  0  0
   -1.8528   -4.5406   -2.6744 H   0  0  0  0  0  0  0  0  0  0  0  0
   -0.7308   -4.7425   -1.3403 H   0  0  0  0  0  0  0  0  0  0  0  0
   -7.4472   -6.3559    1.7067 H   0  0  0  0  0  0  0  0  0  0  0  0
   -6.6461   -7.9297    1.6421 H   0  0  0  0  0  0  0  0  0  0  0  0
   -7.6492   -7.3924    0.2898 H   0  0  0  0  0  0  0  0  0  0  0  0
   -6.0460   -4.7290    1.4185 H   0  0  0  0  0  0  0  0  0  0  0  0
   -3.8183   -0.0228   -0.0467 H   0  0  0  0  0  0  0  0  0  0  0  0
   -2.5616    2.0796    0.0175 H   0  0  0  0  0  0  0  0  0  0  0  0
   -0.1466   -2.2327    0.0030 H   0  0  0  0  0  0  0  0  0  0  0  0
    2.4266    1.6895    1.5155 H   0  0  0  0  0  0  0  0  0  0  0  0
    0.9735   -0.2820    2.8182 H   0  0  0  0  0  0  0  0  0  0  0  0
    2.6122   -0.8043    3.0478 H   0  0  0  0  0  0  0  0  0  0  0  0
    1.4891    1.9663    3.8323 H   0  0  0  0  0  0  0  0  0  0  0  0
    1.7815    0.6535    4.9518 H   0  0  0  0  0  0  0  0  0  0  0  0
    3.4954    2.1531    4.9050 H   0  0  0  0  0  0  0  0  0  0  0  0
  1 25  1  0
  1 26  1  0
  1 27  1  0
  1  2  1  0
  2 10  1  0
  2  3  2  0
  3 11  1  0
  3  4  1  0
  4  5  1  0
  5 10  2  0
  5  6  1  0
  6 31  1  0
  6  7  1  0
  7  9  1  0
  7  8  2  0
  9 28  1  0
  9 29  1  0
  9 30  1  0
 11 16  1  0
 11 12  2  0
 12 13  1  0
 12 32  1  0
 13 14  2  0
 13 33  1  0
 14 15  1  0
 14 24  1  0
 15 16  2  0
 15 17  1  0
 16 34  1  0
 17 18  2  0
 17 19  2  0
 17 20  1  0
 20 21  1  0
 20 35  1  0
 21 22  1  0
 21 36  1  0
 21 37  1  0
 22 23  1  0
 22 38  1  0
 22 39  1  0
 23 40  1  0
M  END
>  <i_m_ct_stereo_status>  (1) 
1

>  <s_m_source_file>  (1) 
0dyzxptxr.smi

>  <i_m_source_file_index>  (1) 
1

>  <i_lp_mmshare_version>  (1) 
48012

>  <i_f3d_flags>  (1) 
0

>  <s_epik_input>  (1) 
Tz1DKFtDSDNdKVxOPWMoW25IXTEpXHNjKGMxW0NIM10pLWMyW2NIXVtjSF1jKENsKWMoW2NIXTIpUyg9TykoPU8pW05IXVtDSDJdW0NIMl1bT0hd

>  <s_epik_cmdline>  (1) 
J2VwaWtfcHl0aG9uJywgJy1waHQnLCAnMi4wJywgJy1waCcsICc3LjAnLCAnLXRuJywgJzgnLCAnLW1hJywgJzIwMCcsICctaW1hZScsICc8aW5maWxlLm1hZT4nLCAnLW9tYWUnLCAnPG91dGZpbGUubWFlPic=

>  <r_lp_tautomer_probability>  (1) 
0.999

>  <r_epik_Ionization_Penalty>  (1) 
0.00117479

>  <r_epik_Ionization_Penalty_Charging>  (1) 
0

>  <r_epik_Ionization_Penalty_Neutral>  (1) 
0.00117479

>  <r_epik_State_Penalty>  (1) 
0.000581965

>  <r_epik_Charging_Adjusted_Penalty>  (1) 
0.000581965

>  <i_epik_Tot_Q>  (1) 
0

>  <i_epik_Tot_abs_Q>  (1) 
0

>  <s_lp_Force_Field>  (1) 
OPLS3e

>  <r_lp_Energy>  (1) 
12.283

>  <b_lp_Chiralities_Consistent>  (1) 
1

>  <s_lp_Variant>  (1) 
0:0-1

>  <name>  (1) 
PIK-93

>  <ligand_id>  (1) 
0

>  <original_smiles>  (1) 
CC1=C(SC(=NC(=O)C)N1)c2ccc(c(c2)S(=O)(=O)NCCO)Cl

>  <smiles>  (1) 
[H]OC([H])([H])C([H])([H])N([H])S(=O)(=O)c1c([H])c(-c2sc(N([H])C(=O)C([H])([H])[H])nc2C([H])([H])[H])c([H])c([H])c1Cl

$$$$
1:0
     RDKit          3D

 14 14  0  0  1  0  0  0  0  0999 V2000
   -0.6837    1.2143   -0.0000 C   0  0  0  0  0  0  0  0  0  0  0  0
   -2.0815    1.1950    0.0000 C   0  0  0  0  0  0  0  0  0  0  0  0
   -2.7268    0.0109    0.0000 N   0  0  0  0  0  0  0  0  0  0  0  0
   -2.0880   -1.1768    0.0000 C   0  0  0  0  0  0  0  0  0  0  0  0
   -0.6903   -1.2039    0.0000 C   0  0  0  0  0  0  0  0  0  0  0  0
    0.0186    0.0033   -0.0000 C   0  0  0  0  0  0  0  0  0  0  0  0
    1.4123    0.0001   -0.0000 N   0  0  0  0  0  0  0  0  0  0  0  0
   -0.1582    2.1586   -0.0000 H   0  0  0  0  0  0  0  0  0  0  0  0
   -2.7054    2.0771    0.0000 H   0  0  0  0  0  0  0  0  0  0  0  0
   -2.7169   -2.0554    0.0000 H   0  0  0  0  0  0  0  0  0  0  0  0
   -0.1702   -2.1513    0.0000 H   0  0  0  0  0  0  0  0  0  0  0  0
    1.9090   -0.8794   -0.0000 H   0  0  0  0  0  0  0  0  0  0  0  0
    1.9123    0.8776   -0.0001 H   0  0  0  0  0  0  0  0  0  0  0  0
   -3.7372    0.0137    0.0000 H   0  0  0  0  0  0  0  0  0  0  0  0
  1  6  2  0
  1  2  1  0
  1  8  1  0
  2  3  2  0
  2  9  1  0
  3  4  1  0
  3 14  1  0
  4  5  2  0
  4 10  1  0
  5  6  1  0
  5 11  1  0
  6  7  1  0
  7 12  1  0
  7 13  1  0
M  CHG  1   3   1
M  END
>  <i_m_ct_stereo_status>  (2) 
1

>  <s_m_source_file>  (2) 
1tn64r11a.smi

>  <i_m_source_file_index>  (2) 
1

>  <i_lp_mmshare_version>  (2) 
48012

>  <i_f3d_flags>  (2) 
0

>  <s_epik_input>  (2) 
W05IMl1jMVtjSF1bY0hdbltjSF1bY0hdMQ==

>  <s_epik_cmdline>  (2) 
J2VwaWtfcHl0aG9uJywgJy1waHQnLCAnMi4wJywgJy1waCcsICc3LjAnLCAnLXRuJywgJzgnLCAnLW1hJywgJzIwMCcsICctaW1hZScsICc8aW5maWxlLm1hZT4nLCAnLW9tYWUnLCAnPG91dGZpbGUubWFlPic=

>  <r_lp_tautomer_probability>  (2) 
1

>  <r_epik_Ionization_Penalty>  (2) 
0.00469034

>  <r_epik_Ionization_Penalty_Charging>  (2) 
0.00468769

>  <r_epik_Ionization_Penalty_Neutral>  (2) 
2.65282e-06

>  <r_epik_State_Penalty>  (2) 
0.00339285

>  <r_epik_Charging_Adjusted_Penalty>  (2) 
0.00808054

>  <i_epik_Tot_Q>  (2) 
1

>  <i_epik_Tot_abs_Q>  (2) 
1

>  <s_lp_Force_Field>  (2) 
OPLS3e

>  <r_lp_Energy>  (2) 
13.0626

>  <b_lp_Chiralities_Consistent>  (2) 
1

>  <s_lp_Variant>  (2) 
1:0-1

>  <name>  (2) 
Aminopyridine

>  <ligand_id>  (2) 
1

>  <original_smiles>  (2) 
c1c[nH+]ccc1N

>  <smiles>  (2) 
[H]c1c(N([H])[H])c([H])c([H])[n+]([H])c1[H]

$$$$
2:0
     RDKit          3D

 60 63  0  0  1  0  0  0  0  0999 V2000
   -9.1232    0.2464    0.4907 C   0  0  0  0  0  0  0  0  0  0  0  0
   -7.9965    1.1841    0.0997 C   0  0  0  0  0  0  0  0  0  0  0  0
   -8.2414    2.5286   -0.1839 C   0  0  0  0  0  0  0  0  0  0  0  0
   -7.1735    3.3492   -0.5430 C   0  0  0  0  0  0  0  0  0  0  0  0
   -5.8712    2.7964   -0.6102 C   0  0  0  0  0  0  0  0  0  0  0  0
   -4.7195    3.5371   -0.9650 C   0  0  0  0  0  0  0  0  0  0  0  0
   -3.4830    2.8954   -0.9997 C   0  0  0  0  0  0  0  0  0  0  0  0
   -3.4005    1.5377   -0.6822 C   0  0  0  0  0  0  0  0  0  0  0  0
   -4.4963    0.8017   -0.3401 N   0  0  0  0  0  0  0  0  0  0  0  0
   -5.7109    1.4121   -0.3029 C   0  0  0  0  0  0  0  0  0  0  0  0
   -6.7625    0.6211    0.0456 N   0  0  0  0  0  0  0  0  0  0  0  0
   -2.1113    0.9757   -0.7165 N   0  0  0  0  0  0  0  0  0  0  0  0
   -1.7275   -0.2847   -0.4142 C   0  0  0  0  0  0  0  0  0  0  0  0
   -2.4920   -1.1950   -0.0892 O   0  0  0  0  0  0  0  0  0  0  0  0
   -0.2173   -0.5483   -0.4978 C   0  0  0  0  0  0  0  0  0  0  0  0
    0.2655   -1.6257    0.4936 C   0  0  0  0  0  0  0  0  0  0  0  0
    1.7992   -1.6715    0.4567 N   0  0  0  0  0  0  0  0  0  0  0  0
    2.4375   -2.6297    1.4817 C   0  0  0  0  0  0  0  0  0  0  0  0
    3.9564   -2.3668    1.6317 C   0  0  0  0  0  0  0  0  0  0  0  0
    4.2967   -0.8895    1.8708 C   0  0  0  0  0  0  0  0  0  0  0  0
    4.5552   -0.1587    0.9137 O   0  0  0  0  0  0  0  0  0  0  0  0
    4.2223   -0.4555    3.1408 N   0  0  0  0  0  0  0  0  0  0  0  0
    4.2816    0.9543    3.5370 C   0  0  0  0  0  0  0  0  0  0  0  0
    3.0628    1.7846    3.1270 C   0  0  0  0  0  0  0  0  0  0  0  0
    3.2200    3.0800    2.6143 C   0  0  0  0  0  0  0  0  0  0  0  0
    2.0859    3.7934    2.2135 C   0  0  0  0  0  0  0  0  0  0  0  0
    0.8314    3.1923    2.3327 C   0  0  0  0  0  0  0  0  0  0  0  0
    0.7561    1.8926    2.8521 C   0  0  0  0  0  0  0  0  0  0  0  0
    1.8428    1.1828    3.2409 N   0  0  0  0  0  0  0  0  0  0  0  0
   -0.5009    1.2750    2.9924 N   0  0  0  0  0  0  0  0  0  0  0  0
   -1.7044    1.8227    2.6722 C   0  0  0  0  0  0  0  0  0  0  0  0
   -2.7633    1.2180    2.8199 O   0  0  0  0  0  0  0  0  0  0  0  0
   -1.6111    3.1750    2.1299 C   0  0  0  0  0  0  0  0  0  0  0  0
   -0.4405    3.8324    1.9585 C   0  0  0  0  0  0  0  0  0  0  0  0
  -10.0692    0.7771    0.6043 H   0  0  0  0  0  0  0  0  0  0  0  0
   -8.9005   -0.2467    1.4376 H   0  0  0  0  0  0  0  0  0  0  0  0
   -9.2574   -0.5222   -0.2714 H   0  0  0  0  0  0  0  0  0  0  0  0
   -9.2417    2.9331   -0.1290 H   0  0  0  0  0  0  0  0  0  0  0  0
   -7.3296    4.3942   -0.7686 H   0  0  0  0  0  0  0  0  0  0  0  0
   -4.8048    4.5876   -1.2026 H   0  0  0  0  0  0  0  0  0  0  0  0
   -2.5991    3.4585   -1.2646 H   0  0  0  0  0  0  0  0  0  0  0  0
   -1.3817    1.6197   -0.9831 H   0  0  0  0  0  0  0  0  0  0  0  0
    0.0049   -0.8581   -1.5199 H   0  0  0  0  0  0  0  0  0  0  0  0
    0.3172    0.3869   -0.3149 H   0  0  0  0  0  0  0  0  0  0  0  0
    0.0183   -1.3833    1.5292 H   0  0  0  0  0  0  0  0  0  0  0  0
   -0.0615   -2.6348    0.2362 H   0  0  0  0  0  0  0  0  0  0  0  0
    2.1066   -1.9264   -0.4715 H   0  0  0  0  0  0  0  0  0  0  0  0
    1.9104   -2.4612    2.4228 H   0  0  0  0  0  0  0  0  0  0  0  0
    2.2142   -3.6349    1.1215 H   0  0  0  0  0  0  0  0  0  0  0  0
    4.3481   -2.9688    2.4532 H   0  0  0  0  0  0  0  0  0  0  0  0
    4.4841   -2.7201    0.7445 H   0  0  0  0  0  0  0  0  0  0  0  0
    3.9867   -1.1155    3.8678 H   0  0  0  0  0  0  0  0  0  0  0  0
    4.3587    0.9935    4.6240 H   0  0  0  0  0  0  0  0  0  0  0  0
    5.1986    1.4048    3.1510 H   0  0  0  0  0  0  0  0  0  0  0  0
    4.1999    3.5259    2.5235 H   0  0  0  0  0  0  0  0  0  0  0  0
    2.1840    4.7942    1.8185 H   0  0  0  0  0  0  0  0  0  0  0  0
   -0.5415    0.3399    3.3707 H   0  0  0  0  0  0  0  0  0  0  0  0
   -2.5328    3.6647    1.8503 H   0  0  0  0  0  0  0  0  0  0  0  0
   -0.4451    4.8324    1.5489 H   0  0  0  0  0  0  0  0  0  0  0  0
    2.1411   -0.7399    0.6491 H   0  0  0  0  0  0  0  0  0  0  0  0
  1  2  1  0
  1 35  1  0
  1 36  1  0
  1 37  1  0
  2 11  2  0
  2  3  1  0
  3  4  2  0
  3 38  1  0
  4  5  1  0
  4 39  1  0
  5 10  2  0
  5  6  1  0
  6  7  2  0
  6 40  1  0
  7  8  1  0
  7 41  1  0
  8  9  2  0
  8 12  1  0
  9 10  1  0
 10 11  1  0
 12 13  1  0
 12 42  1  0
 13 14  2  0
 13 15  1  0
 15 16  1  0
 15 43  1  0
 15 44  1  0
 16 17  1  0
 16 45  1  0
 16 46  1  0
 17 18  1  0
 17 47  1  0
 17 60  1  0
 18 19  1  0
 18 48  1  0
 18 49  1  0
 19 20  1  0
 19 50  1  0
 19 51  1  0
 20 21  2  0
 20 22  1  0
 22 23  1  0
 22 52  1  0
 23 24  1  0
 23 53  1  0
 23 54  1  0
 24 29  1  0
 24 25  2  0
 25 26  1  0
 25 55  1  0
 26 27  2  0
 26 56  1  0
 27 34  1  0
 27 28  1  0
 28 29  2  0
 28 30  1  0
 30 31  1  0
 30 57  1  0
 31 32  2  0
 31 33  1  0
 33 34  2  0
 33 58  1  0
 34 59  1  0
M  CHG  1  17   1
M  END
>  <i_m_ct_stereo_status>  (3) 
1

>  <s_m_source_file>  (3) 
2hqno39vn.smi

>  <i_m_source_file_index>  (3) 
1

>  <i_lp_mmshare_version>  (3) 
48012

>  <i_f3d_flags>  (3) 
0

>  <s_epik_input>  (3) 
W2NIXTFbY0hdYyhbQ0gzXSluYyhjMTIpbmMoW2NIXVtjSF0yKVtOSF1DKD1PKVtDSDJdW0NIMl1bTkhdW0NIMl1bQ0gyXUMoPU8pW05IXVtDSDJdYyhbY0hdW2NIXTMpbmMoYzM0KVtuSF1jKD1PKVtjSF1bY0hdNA==

>  <s_epik_cmdline>  (3) 
J2VwaWtfcHl0aG9uJywgJy1waHQnLCAnMi4wJywgJy1waCcsICc3LjAnLCAnLXRuJywgJzgnLCAnLW1hJywgJzIwMCcsICctaW1hZScsICc8aW5maWxlLm1hZT4nLCAnLW9tYWUnLCAnPG91dGZpbGUubWFlPic=

>  <r_lp_tautomer_probability>  (3) 
1

>  <r_epik_Ionization_Penalty>  (3) 
0.00313317

>  <r_epik_Ionization_Penalty_Charging>  (3) 
0.00312517

>  <r_epik_Ionization_Penalty_Neutral>  (3) 
7.99688e-06

>  <r_epik_State_Penalty>  (3) 
-0

>  <r_epik_Charging_Adjusted_Penalty>  (3) 
0.00312517

>  <i_epik_Tot_Q>  (3) 
1

>  <i_epik_Tot_abs_Q>  (3) 
1

>  <s_lp_Force_Field>  (3) 
OPLS3e

>  <r_lp_Energy>  (3) 
43.3678

>  <b_lp_Chiralities_Consistent>  (3) 
1

>  <s_lp_Variant>  (3) 
2:0-1

>  <name>  (3) 
Napthyridine

>  <ligand_id>  (3) 
2

>  <original_smiles>  (3) 
Cc1ccc2ccc(nc2n1)NC(=O)CCNCCC(=O)NCc3ccc4c(n3)NC(=O)C=C4

>  <smiles>  (3) 
[H]c1c(N([H])C(=O)C([H])([H])C([H])([H])[N+]([H])([H])C([H])([H])C([H])([H])C(=O)N([H])C([H])([H])c2nc3c(c([H])c2[H])c([H])c([H])c(=O)n3[H])nc2nc(C([H])([H])[H])c([H])c([H])c2c1[H]

$$$$
3:0
     RDKit          3D

 44 48  0  0  1  0  0  0  0  0999 V2000
   -2.8480   -2.3812    0.3942 C   0  0  0  0  0  0  0  0  0  0  0  0
   -2.0609   -1.1164    0.1086 C   0  0  0  0  0  0  0  0  0  0  0  0
   -0.7151   -1.1753    0.2664 N   0  0  0  0  0  0  0  0  0  0  0  0
   -0.0222   -0.0326    0.0088 C   0  0  0  0  0  0  0  0  0  0  0  0
   -0.6711    1.1383   -0.4112 C   0  0  0  0  0  0  0  0  0  0  0  0
   -2.0700    1.1052   -0.5401 C   0  0  0  0  0  0  0  0  0  0  0  0
   -2.7734   -0.0287   -0.2796 N   0  0  0  0  0  0  0  0  0  0  0  0
   -2.8554    2.1999   -0.9415 N   0  0  0  0  0  0  0  0  0  0  0  0
   -2.5808    3.5392   -1.2682 C   0  0  0  0  0  0  0  0  0  0  0  0
   -3.6478    4.3594   -1.6553 C   0  0  0  0  0  0  0  0  0  0  0  0
   -3.4689    5.6665   -1.9834 N   0  0  0  0  0  0  0  0  0  0  0  0
   -2.2028    6.1546   -1.9207 C   0  0  0  0  0  0  0  0  0  0  0  0
   -1.1312    5.3473   -1.5350 C   0  0  0  0  0  0  0  0  0  0  0  0
   -1.3161    4.0415   -1.2082 N   0  0  0  0  0  0  0  0  0  0  0  0
    1.4669   -0.1285    0.1887 C   0  0  0  0  0  0  0  0  0  0  0  0
    2.3410   -1.2219    0.0039 C   0  0  0  0  0  0  0  0  0  0  0  0
    3.5978   -0.9064    0.2647 N   0  0  0  0  0  0  0  0  0  0  0  0
    3.5799    0.3902    0.6405 C   0  0  0  0  0  0  0  0  0  0  0  0
    2.2783    0.9094    0.6117 N   0  0  0  0  0  0  0  0  0  0  0  0
    1.9203    2.1655    0.9530 N   0  0  0  0  0  0  0  0  0  0  0  0
    2.9453    2.9691    1.3352 C   0  0  0  0  0  0  0  0  0  0  0  0
    4.2780    2.5644    1.3917 C   0  0  0  0  0  0  0  0  0  0  0  0
    4.6131    1.2551    1.0426 C   0  0  0  0  0  0  0  0  0  0  0  0
    1.9616   -2.4852   -0.4107 N   0  0  0  0  0  0  0  0  0  0  0  0
    2.7204   -3.6116   -0.6577 C   0  0  0  0  0  0  0  0  0  0  0  0
    2.2142   -4.8620   -1.0484 C   0  0  0  0  0  0  0  0  0  0  0  0
    3.3022   -5.7013   -1.1860 C   0  0  0  0  0  0  0  0  0  0  0  0
    4.3760   -4.9169   -0.8771 N   0  0  0  0  0  0  0  0  0  0  0  0
    4.0370   -3.6634   -0.5603 N   0  0  0  0  0  0  0  0  0  0  0  0
    5.3374   -5.2270   -0.8795 H   0  0  0  0  0  0  0  0  0  0  0  0
   -2.1992   -3.2532    0.4898 H   0  0  0  0  0  0  0  0  0  0  0  0
   -3.5539   -2.5819   -0.4128 H   0  0  0  0  0  0  0  0  0  0  0  0
   -3.4156   -2.2707    1.3185 H   0  0  0  0  0  0  0  0  0  0  0  0
   -0.0932    2.0168   -0.6378 H   0  0  0  0  0  0  0  0  0  0  0  0
   -3.8377    1.9727   -0.9946 H   0  0  0  0  0  0  0  0  0  0  0  0
   -4.6599    3.9847   -1.7073 H   0  0  0  0  0  0  0  0  0  0  0  0
   -2.0598    7.1930   -2.1811 H   0  0  0  0  0  0  0  0  0  0  0  0
   -0.1236    5.7327   -1.4840 H   0  0  0  0  0  0  0  0  0  0  0  0
    2.6747    3.9791    1.6066 H   0  0  0  0  0  0  0  0  0  0  0  0
    5.0442    3.2579    1.7066 H   0  0  0  0  0  0  0  0  0  0  0  0
    5.6384    0.9174    1.0847 H   0  0  0  0  0  0  0  0  0  0  0  0
    0.9675   -2.6022   -0.5430 H   0  0  0  0  0  0  0  0  0  0  0  0
    1.1772   -5.1183   -1.2084 H   0  0  0  0  0  0  0  0  0  0  0  0
    3.4132   -6.7395   -1.4627 H   0  0  0  0  0  0  0  0  0  0  0  0
  1  2  1  0
  1 31  1  0
  1 32  1  0
  1 33  1  0
  2  7  2  0
  2  3  1  0
  3  4  2  0
  4  5  1  0
  4 15  1  0
  5  6  2  0
  5 34  1  0
  6  7  1  0
  6  8  1  0
  8  9  1  0
  8 35  1  0
  9 14  1  0
  9 10  2  0
 10 11  1  0
 10 36  1  0
 11 12  2  0
 12 13  1  0
 12 37  1  0
 13 14  2  0
 13 38  1  0
 15 19  1  0
 15 16  2  0
 16 17  1  0
 16 24  1  0
 17 18  2  0
 18 23  1  0
 18 19  1  0
 19 20  1  0
 20 21  2  0
 21 22  1  0
 21 39  1  0
 22 23  2  0
 22 40  1  0
 23 41  1  0
 24 25  1  0
 24 42  1  0
 25 29  2  0
 25 26  1  0
 26 27  2  0
 26 43  1  0
 27 28  1  0
 27 44  1  0
 28 30  1  0
 28 29  1  0
M  END
>  <i_m_ct_stereo_status>  (4) 
1

>  <s_m_source_file>  (4) 
3u7x5vdrc.smi

>  <i_m_source_file_index>  (4) 
1

>  <i_lp_mmshare_version>  (4) 
48012

>  <i_f3d_flags>  (4) 
0

>  <s_epik_input>  (4) 
bjFbbkhdW2NIXVtjSF1jMVtOSF1jKG4yKWMobihjMjMpbltjSF1bY0hdW2NIXTMpLWMobmM0W0NIM10pW2NIXWMobjQpW05IXWM1W2NIXW5bY0hdW2NIXW41

>  <s_epik_cmdline>  (4) 
J2VwaWtfcHl0aG9uJywgJy1waHQnLCAnMi4wJywgJy1waCcsICc3LjAnLCAnLXRuJywgJzgnLCAnLW1hJywgJzIwMCcsICctaW1hZScsICc8aW5maWxlLm1hZT4nLCAnLW9tYWUnLCAnPG91dGZpbGUubWFlPic=

>  <r_lp_tautomer_probability>  (4) 
0.8426

>  <r_epik_Ionization_Penalty>  (4) 
0.000939731

>  <r_epik_Ionization_Penalty_Charging>  (4) 
0

>  <r_epik_Ionization_Penalty_Neutral>  (4) 
0.000939731

>  <r_epik_State_Penalty>  (4) 
0.0914605

>  <r_epik_Charging_Adjusted_Penalty>  (4) 
0.0914605

>  <i_epik_Tot_Q>  (4) 
0

>  <i_epik_Tot_abs_Q>  (4) 
0

>  <s_lp_Force_Field>  (4) 
OPLS3e

>  <r_lp_Energy>  (4) 
42.85

>  <b_lp_Chiralities_Consistent>  (4) 
1

>  <s_lp_Variant>  (4) 
3:0-1

>  <name>  (4) 
Imidazopyridazine

>  <ligand_id>  (4) 
3

>  <original_smiles>  (4) 
Cc1nc(cc(n1)Nc2cnccn2)c3c(nc4n3nccc4)Nc5cc[nH]n5

>  <smiles>  (4) 
[H]c1nc([H])c(N([H])c2nc(C([H])([H])[H])nc(-c3c(N([H])c4nn([H])c([H])c4[H])nc4c([H])c([H])c([H])nn34)c2[H])nc1[H]

$$$$
3:1
     RDKit          3D

 44 48  0  0  1  0  0  0  0  0999 V2000
   -2.9199   -2.3595    0.4607 C   0  0  0  0  0  0  0  0  0  0  0  0
   -2.1202   -1.1069    0.1563 C   0  0  0  0  0  0  0  0  0  0  0  0
   -0.7738   -1.1795    0.3053 N   0  0  0  0  0  0  0  0  0  0  0  0
   -0.0722   -0.0449    0.0365 C   0  0  0  0  0  0  0  0  0  0  0  0
   -0.7110    1.1294   -0.3882 C   0  0  0  0  0  0  0  0  0  0  0  0
   -2.1106    1.1099   -0.5102 C   0  0  0  0  0  0  0  0  0  0  0  0
   -2.8240   -0.0145   -0.2356 N   0  0  0  0  0  0  0  0  0  0  0  0
   -2.8862    2.2112   -0.9135 N   0  0  0  0  0  0  0  0  0  0  0  0
   -2.5951    3.5396   -1.2692 C   0  0  0  0  0  0  0  0  0  0  0  0
   -3.6586    4.3833   -1.6133 C   0  0  0  0  0  0  0  0  0  0  0  0
   -3.4624    5.6813   -1.9667 N   0  0  0  0  0  0  0  0  0  0  0  0
   -2.1825    6.1361   -1.9750 C   0  0  0  0  0  0  0  0  0  0  0  0
   -1.1141    5.3050   -1.6342 C   0  0  0  0  0  0  0  0  0  0  0  0
   -1.3162    4.0087   -1.2812 N   0  0  0  0  0  0  0  0  0  0  0  0
    1.4160   -0.1486    0.2114 C   0  0  0  0  0  0  0  0  0  0  0  0
    2.2872   -1.2402    0.0088 C   0  0  0  0  0  0  0  0  0  0  0  0
    3.5461   -0.9310    0.2695 N   0  0  0  0  0  0  0  0  0  0  0  0
    3.5306    0.3607    0.6641 C   0  0  0  0  0  0  0  0  0  0  0  0
    2.2297    0.8819    0.6469 N   0  0  0  0  0  0  0  0  0  0  0  0
    1.8738    2.1334    1.0072 N   0  0  0  0  0  0  0  0  0  0  0  0
    2.9005    2.9308    1.3970 C   0  0  0  0  0  0  0  0  0  0  0  0
    4.2330    2.5240    1.4429 C   0  0  0  0  0  0  0  0  0  0  0  0
    4.5660    1.2194    1.0744 C   0  0  0  0  0  0  0  0  0  0  0  0
    1.9080   -2.4967   -0.4242 N   0  0  0  0  0  0  0  0  0  0  0  0
    2.6817   -3.6110   -0.6731 C   0  0  0  0  0  0  0  0  0  0  0  0
    2.3358   -4.8894   -1.0775 C   0  0  0  0  0  0  0  0  0  0  0  0
    3.5362   -5.6017   -1.1697 C   0  0  0  0  0  0  0  0  0  0  0  0
    4.5762   -4.8654   -0.8587 N   0  0  0  0  0  0  0  0  0  0  0  0
    4.0506   -3.6713   -0.5630 N   0  0  0  0  0  0  0  0  0  0  0  0
    4.6277   -2.8909   -0.2829 H   0  0  0  0  0  0  0  0  0  0  0  0
   -2.2799   -3.2366    0.5714 H   0  0  0  0  0  0  0  0  0  0  0  0
   -3.6272   -2.5655   -0.3437 H   0  0  0  0  0  0  0  0  0  0  0  0
   -3.4878   -2.2287    1.3821 H   0  0  0  0  0  0  0  0  0  0  0  0
   -0.1237    2.0003   -0.6195 H   0  0  0  0  0  0  0  0  0  0  0  0
   -3.8728    1.9995   -0.9442 H   0  0  0  0  0  0  0  0  0  0  0  0
   -4.6816    4.0355   -1.6097 H   0  0  0  0  0  0  0  0  0  0  0  0
   -2.0263    7.1672   -2.2556 H   0  0  0  0  0  0  0  0  0  0  0  0
   -0.0953    5.6636   -1.6399 H   0  0  0  0  0  0  0  0  0  0  0  0
    2.6313    3.9369    1.6837 H   0  0  0  0  0  0  0  0  0  0  0  0
    5.0011    3.2121    1.7649 H   0  0  0  0  0  0  0  0  0  0  0  0
    5.5911    0.8808    1.1084 H   0  0  0  0  0  0  0  0  0  0  0  0
    0.9152   -2.6171   -0.5650 H   0  0  0  0  0  0  0  0  0  0  0  0
    1.3422   -5.2605   -1.2809 H   0  0  0  0  0  0  0  0  0  0  0  0
    3.6402   -6.6370   -1.4595 H   0  0  0  0  0  0  0  0  0  0  0  0
  1  2  1  0
  1 31  1  0
  1 32  1  0
  1 33  1  0
  2  7  2  0
  2  3  1  0
  3  4  2  0
  4  5  1  0
  4 15  1  0
  5  6  2  0
  5 34  1  0
  6  7  1  0
  6  8  1  0
  8  9  1  0
  8 35  1  0
  9 14  1  0
  9 10  2  0
 10 11  1  0
 10 36  1  0
 11 12  2  0
 12 13  1  0
 12 37  1  0
 13 14  2  0
 13 38  1  0
 15 19  1  0
 15 16  2  0
 16 17  1  0
 16 24  1  0
 17 18  2  0
 18 23  1  0
 18 19  1  0
 19 20  1  0
 20 21  2  0
 21 22  1  0
 21 39  1  0
 22 23  2  0
 22 40  1  0
 23 41  1  0
 24 25  1  0
 24 42  1  0
 25 29  1  0
 25 26  2  0
 26 27  1  0
 26 43  1  0
 27 44  1  0
 27 28  2  0
 28 29  1  0
 29 30  1  0
M  END
>  <i_m_ct_stereo_status>  (5) 
1

>  <s_m_source_file>  (5) 
3u7x5vdrc.smi

>  <i_m_source_file_index>  (5) 
1

>  <i_lp_mmshare_version>  (5) 
48012

>  <i_f3d_flags>  (5) 
0

>  <s_epik_input>  (5) 
bjFbbkhdW2NIXVtjSF1jMVtOSF1jKG4yKWMobihjMjMpbltjSF1bY0hdW2NIXTMpLWMobmM0W0NIM10pW2NIXWMobjQpW05IXWM1W2NIXW5bY0hdW2NIXW41

>  <s_epik_cmdline>  (5) 
J2VwaWtfcHl0aG9uJywgJy1waHQnLCAnMi4wJywgJy1waCcsICc3LjAnLCAnLXRuJywgJzgnLCAnLW1hJywgJzIwMCcsICctaW1hZScsICc8aW5maWxlLm1hZT4nLCAnLW9tYWUnLCAnPG91dGZpbGUubWFlPic=

>  <r_lp_tautomer_probability>  (5) 
0.1574

>  <r_epik_Ionization_Penalty>  (5) 
0.00374817

>  <r_epik_Ionization_Penalty_Charging>  (5) 
0

>  <r_epik_Ionization_Penalty_Neutral>  (5) 
0.00374817

>  <r_epik_State_Penalty>  (5) 
1.15215

>  <r_epik_Charging_Adjusted_Penalty>  (5) 
1.15215

>  <i_epik_Tot_Q>  (5) 
0

>  <i_epik_Tot_abs_Q>  (5) 
0

>  <s_lp_Force_Field>  (5) 
OPLS3e

>  <r_lp_Energy>  (5) 
39.267

>  <b_lp_Chiralities_Consistent>  (5) 
1

>  <s_lp_Variant>  (5) 
3:0-2

>  <name>  (5) 
Imidazopyridazine

>  <ligand_id>  (5) 
3

>  <original_smiles>  (5) 
Cc1nc(cc(n1)Nc2cnccn2)c3c(nc4n3nccc4)Nc5cc[nH]n5

>  <smiles>  (5) 
[H]c1nc([H])c(N([H])c2nc(C([H])([H])[H])nc(-c3c(N([H])c4c([H])c([H])nn4[H])nc4c([H])c([H])c([H])nn34)c2[H])nc1[H]

$$$$
